39

 C   -1.164267904029    1.758043236095   -0.102093189978
 H   -2.066851190179    2.185572676870   -0.549138226424
 H   -0.919801831619    2.352966733554    0.786112799329
 H   -0.357674102858    1.918925555546   -0.824728317784
 C   -1.355339222116    0.264954113243    0.273305452730
 C   -2.402030936818    0.168776647032    1.443148038460
 H   -1.890508206004    0.330591422181    2.402204993559
 H   -2.815924676490   -0.843178249709    1.502621335139
 C   -0.025835131106   -0.264311364132    0.857001665048
 O    0.055022921949   -1.074330908724    1.772294535717
 O    1.061063511669    0.211338277408    0.201078917283
 C    2.049888449438    0.800746225700    1.055382412956
 H    1.640754353904    1.017566019344    2.050290610958
 H    2.334977096851    1.760765217623    0.613089155100
 C    3.255807331938   -0.127940695764    1.166660261610
 H    2.916933866249   -1.133402436528    1.444647906156
 H    3.895551269116    0.213513543074    1.989321562411
 C    4.067649290365   -0.218505577568   -0.127409065033
 H    4.609599982856   -1.171725146669   -0.138369515646
 H    3.405858678300   -0.228380821625   -1.000963617726
 C    5.072696248590    0.914576151656   -0.266030687924
 H    5.777258564628    0.921154736913    0.571645788089
 H    4.572883237313    1.886876210214   -0.308720056817
 H    5.649623953959    0.793843561733   -1.188567855741
 C   -1.721402234664   -0.649563684500   -0.976516316261
 C   -3.152599534560   -0.392459701461   -1.496677556029
 H   -3.344694287312   -0.945568620034   -2.425200066580
 H   -3.326335397510    0.665833650070   -1.716016360917
 H   -3.906598316302   -0.725338510314   -0.775716704541
 C   -1.615117876950   -2.165720802236   -0.672034265664
 H   -0.580336071473   -2.480282457727   -0.494838525475
 H   -2.206574090932   -2.451533361676    0.202507541383
 H   -1.985112353005   -2.764116396328   -1.514415125285
 C   -0.797827593634   -0.375385605818   -2.113926400717
 N   -0.097502909733   -0.157530283980   -3.013171403674
 C   -3.567366789789    1.156563477630    1.428721690221
 H   -4.350861317689    0.812135913374    2.112387054257
 H   -4.022010991602    1.268476923011    0.443362572589
 H   -3.245886006067    2.144172899670    1.775035657478
