61

 C   -1.531231181458    0.321931763154    1.826461657856
 H   -1.367143323407    1.352883510959    2.161418800047
 H   -2.379068692107   -0.078620754674    2.395246698687
 H   -0.646598402259   -0.262169889646    2.103666597647
 C   -1.792043765803    0.266141994469    0.291010384648
 C   -0.492306643936    0.826521266241   -0.378481900818
 H   -0.278488837528    1.795951889419    0.096902200126
 H    0.343379705095    0.192557835515   -0.050774074916
 C   -2.058196797800   -1.227818113069    0.045628407705
 O   -3.141527557409   -1.772333802546    0.218854646854
 O   -0.916991047221   -1.896322418093   -0.268738356345
 C   -1.108549519479   -3.197537919475   -0.851800482625
 H   -0.273300084416   -3.367470384274   -1.539909455067
 H   -2.026221565405   -3.231860914664   -1.451149619077
 C   -1.119892945508   -4.277578085400    0.229931986772
 H   -1.788299536954   -4.027433565212    1.061736797682
 H   -1.500973246602   -5.207702140430   -0.205250833126
 O    0.203645049410   -4.558149947905    0.698584011094
 C    0.631969654536   -3.691364293460    1.754175961610
 H    0.914704452449   -4.325544660815    2.601034295179
 H   -0.173288196948   -3.031321395429    2.097135753633
 C    1.842204183431   -2.881845212247    1.289876988867
 H    2.763490891055   -3.448025315817    1.465430409291
 H    1.764213849371   -2.663639238694    0.218780271004
 O    1.903966847050   -1.662644642219    2.036878099741
 C    2.814931606478   -0.726129690596    1.454273171952
 H    3.838047372983   -1.085574540497    1.609886727460
 H    2.632394598008   -0.645996986860    0.376684283950
 C    2.627384548946    0.632949425545    2.127886665214
 H    3.385859913070    0.769970815433    2.906735029778
 H    1.635670620485    0.700303476450    2.589503612401
 O    2.771234319793    1.670839569727    1.152344099591
 C    2.413789798840    2.947283116142    1.691618935688
 H    1.375183990211    2.922006424069    2.041796942832
 H    3.063526486876    3.167701329642    2.546412274466
 C    2.593834396254    4.027708061586    0.625061963614
 H    2.922884021891    4.957658603827    1.102906834410
 H    3.352737129552    3.726020523403   -0.106505151006
 O    1.348666289803    4.265029893061   -0.039562752588
 C    1.495752521859    5.211039296692   -1.091272845985
 H    1.907327853982    6.151116368948   -0.711374416044
 H    0.508234078120    5.409904486338   -1.515930664804
 H    2.139203927516    4.806231337847   -1.878188622262
 C   -0.350318617622    1.040020716496   -1.914464980222
 C   -1.028271933590    2.341955428737   -2.377247749357
 H   -2.109992639474    2.230079713594   -2.488420985955
 H   -0.646260552226    2.668197700656   -3.352351637146
 H   -0.849940326360    3.159397649849   -1.670946227103
 C    1.160325923247    1.166604086367   -2.230546112608
 H    1.609836934889    1.996555639780   -1.675428958221
 H    1.705185034583    0.254095711052   -1.959808283839
 H    1.336875405213    1.350240087302   -3.297340972797
 C   -0.864890463766   -0.089997202132   -2.712529653251
 N   -1.262896487779   -0.967555678109   -3.359817333266
 C   -3.040778529572    1.153186872876    0.027076146475
 H   -2.725076660589    2.192784107537   -0.123386564408
 C   -3.958600549513    0.744916351433   -1.120289811565
 H   -3.666927621629    1.183961371349    0.929440686139
 H   -4.782420624659    0.124107119444   -0.752850132793
 H   -4.403450485186    1.634155204833   -1.579344823773
 H   -3.443463726506    0.190855915569   -1.904821097729
