58

 C   -4.693397897293    0.812790251924    2.278783756716
 H   -4.846075279276    0.359951315955    3.263436628774
 H   -5.657755164661    0.827413841179    1.760848559720
 H   -4.424663111149    1.863050435495    2.437784792074
 C   -3.609714296786    0.060605493657    1.472339323435
 C   -2.257823991890    0.050030044507    2.272813599498
 H   -1.433278698529   -0.214513848877    1.600747821814
 H   -2.271922290466   -0.735611639449    3.033064119603
 C   -3.462754605846    0.846370521823    0.144498923109
 O   -4.234281555686    0.748459707798   -0.801492893586
 O   -2.431409988703    1.726168728178    0.156583070468
 C   -1.827408379703    1.987220145160   -1.122926265857
 H   -2.587449630913    2.336850652350   -1.831328859729
 H   -1.126451029990    2.816400391795   -0.976692610322
 C   -1.074102505322    0.781104631478   -1.680439814954
 H   -1.777525485798   -0.003922940969   -1.976553120627
 H   -0.507077807195    1.089891267716   -2.566010546672
 O   -0.170513366308    0.284140280241   -0.692771115668
 C    0.554833721990   -0.859203078128   -1.156578933654
 H    0.373409795881   -1.669618269656   -0.443270424480
 H    0.206438458187   -1.200615455700   -2.139054710411
 C    2.050243216009   -0.553395138038   -1.199834656048
 H    2.595854783130   -1.469610253265   -1.449627732585
 H    2.413515602902   -0.226672258294   -0.218194585864
 O    2.342191604080    0.397219157366   -2.228441003029
 C    2.562277411655    1.716911183771   -1.724289714714
 H    2.102279760818    1.868554341758   -0.740501769954
 H    2.064757156486    2.406756475945   -2.414379564999
 C    4.055780870095    2.034606775066   -1.691140688037
 H    4.533053229040    1.757253475063   -2.639232898378
 H    4.193877844845    3.113493705695   -1.563840009374
 O    4.674712898692    1.397052723372   -0.570377323947
 C    5.612293903644    0.393844072131   -0.970974201707
 H    6.451970511654    0.874949499870   -1.485156025616
 H    5.129611816024   -0.315777804849   -1.652520797177
 C    6.108171420317   -0.336291849590    0.271793768585
 H    5.263651122985   -0.799034278817    0.795401161852
 H    6.607263521850    0.368838975244    0.946335745144
 O    7.034193859914   -1.351553375802   -0.124407527663
 C    7.534363055580   -2.065666558490    0.998357089163
 H    6.718268610628   -2.564269240150    1.530124393497
 H    8.069818135677   -1.391562128719    1.673812783194
 H    8.232574503518   -2.826345212800    0.638982769187
 C   -4.079946823592   -1.440244294344    1.146886509080
 C   -4.013921219576   -2.371821333989    2.388162565202
 H   -2.990601830070   -2.692886538784    2.614725717021
 H   -4.424430997182   -1.887118492682    3.279494250283
 H   -4.592385076794   -3.290931318893    2.229404271361
 C   -5.539803570320   -1.549083200039    0.633725347759
 H   -6.257869567003   -1.354359909164    1.438713466186
 H   -5.753960381999   -2.560404303419    0.263859926187
 H   -5.768927227773   -0.864005764202   -0.184374727316
 C   -3.188003424475   -2.035832914442    0.113979211972
 N   -2.485973325116   -2.519791875040   -0.673394368320
 C   -1.884343234516    1.323368046549    3.034088507694
 H   -2.103683251137    2.240436739012    2.483660762668
 H   -0.811106106852    1.321042004121    3.252750441798
 H   -2.413194693572    1.367326109880    3.992071092336
