54

 C   -3.400826357289    0.627981748723   -1.762680169127
 H   -3.355531571083   -0.142787125265   -2.541177557103
 H   -2.435536414073    1.145003789095   -1.750820577368
 H   -4.160769605032    1.352817596780   -2.073460086359
 C   -3.731333029576    0.017110781916   -0.386664848844
 C   -3.529346681421    1.071625573827    0.735940806951
 H   -3.594811722770    0.586079285178    1.717920559682
 H   -2.516921403936    1.490841514925    0.673103358826
 C   -2.764591961566   -1.168651901212   -0.214187955424
 O   -2.976590298074   -2.305383290018   -0.621050993695
 O   -1.625063055929   -0.830105987503    0.438665284150
 C   -0.451465895506   -1.021540407742   -0.363668652210
 H   -0.689453524747   -1.000549264938   -1.434899473643
 H   -0.036327559126   -2.006167333885   -0.124666433390
 C    0.564810810001    0.066594622828   -0.039927950464
 H    0.712817188881    0.133030286648    1.043972561229
 H    1.516948288556   -0.178022572144   -0.519554721226
 O    0.091903506321    1.322347648052   -0.541552614571
 C    1.011120715569    2.381782849190   -0.266436045480
 H    1.616035387739    2.170033747772    0.622968509725
 H    0.410478837219    3.267559941166   -0.033394958859
 C    1.885252381755    2.682199745778   -1.486445906678
 H    2.275443060237    3.706195528674   -1.439683072142
 H    1.285731691627    2.615290671483   -2.400826802128
 O    2.957440541930    1.745899905550   -1.614230008799
 C    4.119508094524    2.121382891575   -0.871968999286
 H    4.787492614792    2.665315712736   -1.548170156929
 H    3.871732799956    2.784715869823   -0.034608476383
 C    4.820731735091    0.867401988270   -0.353784704987
 H    4.864695361551    0.105178450835   -1.140279232493
 H    5.843902548895    1.120472145904   -0.054244209648
 O    4.120206512616    0.365593468358    0.787230414303
 C    4.591918920623   -0.918995047189    1.200367601930
 H    5.647017837353   -1.051829950668    0.931716458071
 H    4.538319799718   -0.948232511428    2.293922504864
 C    3.748616367853   -2.048400744277    0.603598308316
 H    3.564690275433   -1.867887479707   -0.460500280989
 H    4.292240261546   -2.998390936326    0.675842060666
 O    2.475988794319   -2.128839152212    1.248564160218
 C    2.381658205359   -3.227703349128    2.143176508828
 H    3.178145577318   -3.185322219324    2.892372635638
 H    1.417224531181   -3.172744934877    2.655097488580
 H    2.430522965230   -4.170673684905    1.590431892129
 C   -4.501100336536    2.247266310749    0.716119950089
 H   -4.190027749545    2.994465921753    1.454161244605
 H   -5.516569985450    1.936843267120    0.976852202075
 H   -4.523766559852    2.741246352256   -0.258892849023
 C   -5.185620249126   -0.527609400085   -0.420655044826
 C   -5.666040045110   -1.160773981068    0.881671286161
 H   -5.879948031718    0.278287113744   -0.689851207392
 H   -5.284339530268   -1.270643661270   -1.223420949079
 H   -4.927391666741   -1.846993469357    1.305136218592
 H   -6.582255693617   -1.732452071295    0.700130081171
 H   -5.898401160379   -0.398332897834    1.630927868399
