61

 C   -3.730682839899    0.236193219642    2.284301685580
 H   -4.587568687847    0.101769030900    2.944990851297
 H   -3.830389461709    1.219549039619    1.810446548893
 H   -2.852570246598    0.272847038755    2.939261083465
 C   -3.612338104949   -0.878372785529    1.228285750390
 C   -4.778848187809   -0.808611064959    0.175307648361
 H   -4.510381086105   -1.487626793430   -0.649822559640
 H   -4.747934689605    0.199902482266   -0.266482321698
 C   -2.320785632063   -0.555425482616    0.426351616665
 O   -2.265692113905   -0.389115771156   -0.785583565617
 O   -1.231015385416   -0.432459472342    1.233154278036
 C   -0.088583886525   -1.178906643181    0.782016046062
 H    0.423512249901   -1.544285570878    1.678702520562
 H   -0.395790118483   -2.056137830459    0.198934005369
 C    0.844975634197   -0.281196364444   -0.023032167221
 H    1.039426485805    0.644536862288    0.528643289148
 H    0.394885518272   -0.037419215507   -0.991195391226
 O    2.073399312562   -0.983339040373   -0.239593309354
 C    3.028817178319   -0.188579645555   -0.949479559266
 H    2.532786128086    0.454125901653   -1.686450887180
 H    3.658938859227   -0.884332558343   -1.513725279761
 C    3.907461584989    0.613912466815    0.012811671885
 H    3.939492315203    0.128418418970    0.994248181593
 H    4.939035964678    0.647475361762   -0.351551900691
 O    3.382486257614    1.930720483618    0.212631785179
 C    3.899755669231    2.884789995211   -0.718390611660
 H    3.122433403434    3.645164627542   -0.850499060897
 H    4.057597726413    2.429802621511   -1.702000869614
 C    5.165425142994    3.561818544677   -0.185352562999
 H    5.266171431886    4.574641929616   -0.593851783764
 H    5.102709294182    3.668600663453    0.903074079765
 O    6.337127316311    2.793592905269   -0.466689314640
 C    6.875930106280    3.035428565714   -1.768670182708
 H    6.181103136215    3.594842718214   -2.406764381686
 H    7.778154764583    3.643387635592   -1.644657116062
 C    7.238446881043    1.704274331527   -2.425159878294
 H    7.692878761060    1.029311024641   -1.690142622996
 H    7.958485197232    1.878448098211   -3.232492969939
 O    6.060939036001    1.109758245452   -2.981291457803
 C    6.301693446651   -0.227625542258   -3.399314225094
 H    6.510101306851   -0.863168019617   -2.533395613149
 H    5.401577952050   -0.599547103227   -3.895997196367
 H    7.134474179732   -0.267419644524   -4.108096055363
 C   -6.272813528918   -1.096500782423    0.513264821948
 C   -6.847422998794   -0.181868371653    1.602572969189
 H   -6.476795623359    0.843504730182    1.497490445837
 H   -6.607364859992   -0.536329660590    2.609398072769
 H   -7.942178348677   -0.133376615272    1.548561584605
 C   -7.088431309346   -0.835780506328   -0.779814766945
 H   -6.716732571369   -1.437869337752   -1.617736612200
 H   -8.149743142310   -1.077901712138   -0.644608583217
 H   -7.027247971259    0.217974994688   -1.076476759931
 C   -6.491125442075   -2.512371035034    0.879526139815
 N   -6.675262769745   -3.622417598427    1.163899584458
 C   -3.418743739165   -2.300965032310    1.822768051416
 H   -2.352845687741   -2.544890936569    1.907421143150
 C   -4.014560551691   -2.539313709806    3.205348635890
 H   -3.810757359335   -3.052598409224    1.127942931269
 H   -3.412685836658   -2.050336480060    3.978101092589
 H   -4.023204570811   -3.611950463279    3.426201047529
 H   -5.041379783550   -2.178758500977    3.287403959675
