35

 C   -1.878759725861    0.911764707280   -1.590113898760
 H   -1.903529981737    0.178037269270   -2.403542965758
 H   -2.818076711630    1.475900009737   -1.617316350168
 H   -1.071441592438    1.619259539682   -1.812239661547
 C   -1.680143369538    0.233575285230   -0.218052652833
 C   -2.994624719948   -0.473190088565    0.212906805101
 H   -3.745011821889    0.284791204621    0.473606172508
 H   -2.826860767343   -1.056902367039    1.126793977515
 C   -0.529174116483   -0.777546451562   -0.311367409887
 O   -0.563437958652   -1.928774614752    0.102508649613
 O    0.564759540029   -0.236217497398   -0.915867338279
 C    1.772064373746   -0.448920587933   -0.174111259164
 H    2.084639223276   -1.491593776927   -0.300497081909
 H    1.597653715482   -0.248732684876    0.889048963367
 C    2.833192689572    0.495952224147   -0.727059207225
 H    2.989041208293    0.276423762247   -1.790523329882
 H    2.476329338075    1.531470051548   -0.669849476394
 C    4.171059373663    0.357269685542    0.001151584479
 H    4.387762371159   -0.697555712329    0.206338418078
 H    4.971112979302    0.717596751842   -0.656462097552
 C    4.213997298682    1.147437542950    1.300014503337
 H    3.485854926844    0.765512475467    2.021843955554
 H    4.007665556595    2.207942917507    1.124308492621
 H    5.207231252106    1.069774358517    1.753849666063
 C   -3.607096909266   -1.399668875002   -0.834073383494
 H   -2.854221998645   -2.017751537550   -1.331100254116
 H   -4.144623672783   -0.827064540675   -1.596515694005
 H   -4.328196860080   -2.073174502587   -0.359142310353
 C   -1.306478953237    1.332146433131    0.815457117419
 H   -0.376037057908    1.829856669402    0.512460615012
 C   -1.143610482901    0.846538565542    2.251949504871
 H   -2.078175812380    2.113381595239    0.806023768951
 H   -0.547709902001   -0.067895046438    2.315054338046
 H   -0.636288166935    1.612786168698    2.847544488825
 H   -2.117132239184    0.660971595357    2.716196301636
