35

 C   -2.196972445233   -1.166608547654   -0.826116368719
 H   -3.283585274705   -1.080152828619   -0.933329461263
 H   -1.980410048643   -2.209974741725   -0.567791879128
 H   -1.750989112509   -0.966648530752   -1.806939936699
 C   -1.656100574228   -0.202182783945    0.248491898716
 C   -1.717946386916    1.266242688518   -0.251728114276
 H   -1.195079642609    1.922566715637    0.455272914227
 H   -1.177376128267    1.358893296930   -1.202671432134
 C   -0.192243522046   -0.612771689827    0.486756788878
 O    0.221372818158   -1.226062202776    1.462084496975
 O    0.610380496572   -0.259971560341   -0.554507700037
 C    1.731288321241    0.543042841163   -0.163625961999
 H    1.782916719565    1.391463403709   -0.853716539188
 H    1.594731715634    0.959993392678    0.842406657966
 C    3.010016561481   -0.288084037996   -0.224871244419
 H    3.806501820101    0.241037377760    0.312092174093
 H    2.858468764959   -1.231746431493    0.313241523824
 C    3.456837525731   -0.598692746025   -1.655103431366
 H    2.591415376700   -0.799028126621   -2.297020812718
 H    4.056155525547   -1.516945683749   -1.646885297055
 C    4.289053628621    0.520692906631   -2.261506568264
 H    4.599719950937    0.250443281508   -3.275867100206
 H    5.192710503904    0.703481611531   -1.671441386125
 H    3.718697169761    1.452342386768   -2.322940549722
 C   -3.120499160815    1.820089660364   -0.480957720776
 H   -3.053340660801    2.830814344160   -0.897701886187
 H   -3.688811064678    1.889884608656    0.450140060662
 H   -3.684752377074    1.210613306146   -1.192194714487
 C   -2.467972149148   -0.413721224608    1.555509603023
 H   -3.540443005722   -0.309141853339    1.347279605021
 C   -2.111028544196    0.528835893833    2.701779953496
 H   -2.342928724037   -1.447934539105    1.903611672477
 H   -2.430878310895    0.093948695596    3.654518059959
 H   -2.621166125698    1.490585343170    2.592355370590
 H   -1.036179656221    0.717969350720    2.768947767040
