39

 C   -1.283585277760   -0.759259041835    1.908435905164
 H   -0.825687540271    0.110008972847    2.392307776166
 H   -2.252646295319   -0.932684255875    2.389848525097
 H   -0.654982400908   -1.626421427886    2.141909518810
 C   -1.444195456544   -0.559125717368    0.378078760379
 C   -2.355091378503   -1.708625530363   -0.166736639860
 H   -3.373709853587   -1.593234452428    0.220294431763
 H   -2.437479624658   -1.646078929799   -1.258320887628
 C   -0.079283016699   -0.686601068304   -0.331871079241
 O    0.051017057267   -0.938157956699   -1.523481083288
 O    0.970587991068   -0.523767746698    0.512710863610
 C    2.023189667956    0.314420946829    0.006938670730
 H    1.683772182449    0.918123641798   -0.843449030457
 H    2.297507936848    0.999325856593    0.815545559748
 C    3.211671183026   -0.563727143099   -0.370629652767
 H    3.572890889282   -1.100820326767    0.514633099286
 H    2.885720409072   -1.326749282657   -1.087901777123
 C    4.351562461015    0.237058977362   -1.001901818486
 H    3.958158091399    0.934091429097   -1.750963697639
 H    5.013828634357   -0.453964277156   -1.536985497036
 C    5.171609029965    1.002304391995    0.025063721759
 H    6.043770971969    1.457665471717   -0.455097403314
 H    5.533223506286    0.339816212730    0.817740188604
 H    4.584962470206    1.805249298155    0.481489022043
 C   -2.056648451512    0.874179867505    0.052068727763
 C   -3.323315417649    1.174396855831    0.891052979114
 H   -3.105197326895    1.232925105679    1.963122688551
 H   -3.767128775378    2.136805508062    0.605887653182
 H   -4.096498613627    0.413862626622    0.746326417777
 C   -2.451643268249    1.045609734901   -1.433832955454
 H   -3.292510936040    0.398051928112   -1.704176967620
 H   -1.623216895230    0.828421896307   -2.114327999900
 H   -2.771801134897    2.074796231940   -1.641753126908
 C   -1.066072321850    1.939407550487    0.368852507808
 N   -0.289112729964    2.764170989420    0.618553048404
 C   -1.891883815700   -3.124139807878    0.176341342010
 H   -0.816590258413   -3.256271556293    0.027390111733
 H   -2.405427412784   -3.848070292217   -0.465245085898
 H   -2.134522516377   -3.376038458894    1.213424024313
