39

 C   -0.437599190448   -0.211407551391    1.824389829334
 H    0.286978937387   -0.992391566142    2.083979215589
 H    0.101430963068    0.741432730295    1.797051040210
 H   -1.145024748384   -0.178881799616    2.659873038719
 C   -1.160832943241   -0.509207411751    0.475309341037
 C   -1.892034125009   -1.881279222671    0.650991516847
 H   -2.904606700224   -1.724119452696    1.037675049675
 H   -1.382812811713   -2.469473866082    1.426388322333
 C   -0.096580329432   -0.645577534469   -0.638090303031
 O   -0.299886739732   -0.435634608019   -1.826224014884
 O    1.099322168039   -1.091976347128   -0.174215288332
 C    2.179165439462   -0.217120469513   -0.528559538210
 H    2.404604267925   -0.347607246362   -1.593024219331
 H    1.890473325055    0.823918093166   -0.343341066765
 C    3.386375756134   -0.595425260400    0.322243320450
 H    3.128458504344   -0.527944151751    1.386091355100
 H    3.646838611792   -1.643334660023    0.128677163381
 C    4.607040722500    0.274728058162    0.018741238953
 H    5.510879394572   -0.262946764607    0.329161494048
 H    4.699102201773    0.441647126989   -1.060785493114
 C    4.564270003100    1.613734111553    0.738771406509
 H    3.727355089671    2.225954717530    0.389686312366
 H    4.469766258656    1.477982046887    1.820778699281
 H    5.487602774296    2.170864506763    0.550131503771
 C   -2.156765727958    0.692415315728    0.129570295587
 C   -3.036742797078    1.098675243619    1.342265300732
 H   -2.455513752755    1.596925744047    2.126783059018
 H   -3.823570549624    1.803098152421    1.043850953871
 H   -3.535804811768    0.235170447342    1.792091359957
 C   -3.131855921839    0.382202056936   -1.028396452369
 H   -3.739673019614    1.261306851417   -1.278956093160
 H   -2.623170119779    0.084750155940   -1.948485157534
 H   -3.832664145307   -0.414684576897   -0.757654698765
 C   -1.367952288799    1.901559252923   -0.243109974824
 N   -0.732110127997    2.840748938173   -0.488428429013
 C   -1.990635071993   -2.780781708984   -0.578206770753
 H   -1.020524392162   -3.227715055994   -0.817958683298
 H   -2.686583254891   -3.602727773020   -0.378484356636
 H   -2.358977287954   -2.249225011676   -1.458123859593
