35

 C   -1.785110391402   -2.336398102067    0.979470192303
 H   -2.692818653446   -2.455129073480    1.582253070004
 H   -1.816845711028   -3.095617343954    0.189139745341
 H   -0.925850495840   -2.568756909074    1.618545516424
 C   -1.691786805990   -0.908799457087    0.392140454159
 C   -1.925408192571    0.124892792067    1.525829810746
 H   -2.968846608553    0.060219353365    1.861878740205
 H   -1.800696538054    1.147077422891    1.149731896217
 C   -0.321386872200   -0.768302894185   -0.283548955278
 O    0.302412428350   -1.695228195935   -0.785890936570
 O    0.110225467025    0.520612748784   -0.315024169587
 C    1.480076755679    0.689629052481    0.077616361668
 H    1.507839863718    1.541904860230    0.764174446307
 H    1.853632849065   -0.186268635792    0.622357665950
 C    2.318035478634    0.979336671567   -1.163260042461
 H    2.186300640619    0.166837268747   -1.888052540324
 H    1.957473804558    1.893577876088   -1.649911317119
 C    3.808544932181    1.105252524164   -0.844267899658
 H    4.122586282747    0.302732466891   -0.166742495066
 H    4.380051543554    0.972166173569   -1.770605917824
 C    4.167982813812    2.453091603902   -0.238552813379
 H    3.726425485155    2.571063228651    0.755563783865
 H    5.254308299924    2.539607794561   -0.133745469852
 H    3.825830116063    3.276916152726   -0.872787054454
 C   -1.027142908323   -0.042802970088    2.748069461415
 H   -1.419386996540   -0.816394586893    3.415946161410
 H   -0.988382280084    0.893419455503    3.314652078404
 H   -0.002112512316   -0.308786713466    2.476913551126
 C   -2.792455390741   -0.788386104919   -0.698661646591
 H   -3.772565673140   -0.987314837058   -0.245197050414
 C   -2.870877457415    0.550558270944   -1.422935248901
 H   -2.646444556621   -1.571463608387   -1.454834956885
 H   -1.956422657684    0.760387369859   -1.984662059485
 H   -3.061569323844    1.376646018415   -0.732808296543
 H   -3.696618931075    0.530901071885   -2.142413633619
